data_
_symmetry_space_group_name_H-M    'P 1'
_symmetry_Int_Tables_number         1
_cell_length_a                       19.3480
_cell_length_b                       19.3480
_cell_length_c                       19.3480
_cell_angle_alpha                    90.0000
_cell_angle_beta                     90.0000
_cell_angle_gamma                    90.0000
loop_
       _atom_site_label
       _atom_site_fract_x
       _atom_site_fract_y
       _atom_site_fract_z
       _atom_site_type_symbol
       _atom_site_occupancy
          C803   0.1199759   0.0099289   0.0463211      C  1.00
          C804   0.1973569   0.0091523   0.0421472      C  1.00
          C807   0.0454601   0.0088677   0.2232933      C  1.00
          C808   0.1238719   0.0041022   0.2207982      C  1.00
          C811   0.1152417   0.0067485   0.3974444      C  1.00
          C812   0.1908550   0.0094639   0.3932497      C  1.00
          C815   0.0429596   0.0102199   0.5726121      C  1.00
          C816   0.1187930   0.0095724   0.5739415      C  1.00
          C819   0.1212713   0.0109672   0.7511020      C  1.00
          C820   0.1934837   0.0154326   0.7435176      C  1.00
          C823   0.0386600   0.0081063   0.9446033      C  1.00
          C824   0.1128874   0.0096882   0.9342855      C  1.00
          C833   0.0130066   0.0753929   0.0367667      C  1.00
          C834   0.0854805   0.0735542   0.0436213      C  1.00
          C835   0.1202783   0.1361847   0.0415005      C  1.00
          C836   0.1915427   0.1340326   0.0358062      C  1.00
          C837   0.0168463   0.0748711   0.2143265      C  1.00
          C838   0.1589103   0.0732629   0.2209428      C  1.00
          C839   0.0479866   0.1378095   0.2177800      C  1.00
          C840   0.1211522   0.1362111   0.2153500      C  1.00
          C841   0.0078005   0.0762199   0.4022711      C  1.00
          C842   0.0821693   0.0750337   0.4005221      C  1.00
          C843   0.1212050   0.1377321   0.4062213      C  1.00
          C844   0.1911553   0.1363707   0.4023410      C  1.00
          C845   0.0011847   0.0741598   0.5698527      C  1.00
          C846   0.1513132   0.0698524   0.5757892      C  1.00
          C847   0.0422238   0.1396241   0.5695889      C  1.00
          C848   0.1193140   0.1347976   0.5744625      C  1.00
          C849   0.0106722   0.0736936   0.7462206      C  1.00
          C850   0.0820220   0.0700055   0.7408151      C  1.00
          C851   0.1172670   0.1361108   0.7356103      C  1.00
          C852   0.1920450   0.1405911   0.7403142      C  1.00
          C853   0.0049212   0.0744219   0.9420983      C  1.00
          C854   0.1503562   0.0708239   0.9325700      C  1.00
          C855   0.0418771   0.1353884   0.9304448      C  1.00
          C856   0.1158949   0.1376067   0.9330394      C  1.00
          C865   0.0132216   0.2017554   0.0543267      C  1.00
          C866   0.0811666   0.1994723   0.0455506      C  1.00
          C867   0.1214088   0.2625942   0.0365836      C  1.00
          C868   0.1954785   0.2611660   0.0388339      C  1.00
          C869   0.0106298   0.1999481   0.2224295      C  1.00
          C870   0.1586944   0.2012703   0.2270776      C  1.00
          C871   0.0492272   0.2609319   0.2303915      C  1.00
          C872   0.1193642   0.2637598   0.2338128      C  1.00
          C873   0.0121932   0.2019539   0.4120142      C  1.00
          C874   0.0864767   0.2011461   0.4011826      C  1.00
          C875   0.1195852   0.2672804   0.3891109      C  1.00
          C876   0.1906661   0.2623706   0.3847932      C  1.00
          C877   0.0092456   0.2013432   0.5759496      C  1.00
          C878   0.1564415   0.2034521   0.5776513      C  1.00
          C879   0.0433612   0.2646663   0.5809465      C  1.00
          C880   0.1182900   0.2658426   0.5802585      C  1.00
          C881   0.0102552   0.2007585   0.7514692      C  1.00
          C882   0.0829711   0.2031807   0.7421836      C  1.00
          C883   0.1162211   0.2680607   0.7496706      C  1.00
          C884   0.1891501   0.2684705   0.7638790      C  1.00
          C885   0.0075774   0.2011401   0.9341432      C  1.00
          C886   0.1517083   0.1996275   0.9375822      C  1.00
          C887   0.0441822   0.2629455   0.9387391      C  1.00
          C888   0.1167730   0.2643061   0.9419654      C  1.00
          C897   0.0104157   0.3296639   0.0508998      C  1.00
          C898   0.0877899   0.3249457   0.0446681      C  1.00
          C899   0.1193340   0.3896844   0.0337289      C  1.00
          C900   0.1965475   0.3908665   0.0429466      C  1.00
          C901   0.0140365   0.3281010   0.2286519      C  1.00
          C902   0.1585271   0.3270242   0.2335104      C  1.00
          C903   0.0469581   0.3930117   0.2276766      C  1.00
          C904   0.1228349   0.3918482   0.2255793      C  1.00
          C905   0.0074489   0.3304219   0.4061614      C  1.00
          C906   0.0832283   0.3259447   0.3946292      C  1.00
          C907   0.1183167   0.3914132   0.3931130      C  1.00
          C908   0.1913835   0.3898281   0.3866451      C  1.00
          C909   0.0106305   0.3278232   0.5810394      C  1.00
          C910   0.1569476   0.3283102   0.5785974      C  1.00
          C911   0.0461511   0.3959164   0.5845155      C  1.00
          C912   0.1196375   0.3924093   0.5792728      C  1.00
          C913   0.0025959   0.3286861   0.7586835      C  1.00
          C914   0.0798372   0.3300069   0.7599570      C  1.00
          C915   0.1152957   0.3928657   0.7683429      C  1.00
          C916   0.1897536   0.3898204   0.7759453      C  1.00
          C917   0.0081849   0.3267468   0.9502035      C  1.00
          C918   0.1533339   0.3307049   0.9456147      C  1.00
          C919   0.0423670   0.3950006   0.9468737      C  1.00
          C920   0.1173981   0.3956368   0.9484150      C  1.00
          C929   0.0123583   0.4549825   0.0323256      C  1.00
          C930   0.0820386   0.4520374   0.0258748      C  1.00
          C931   0.1183629   0.5195842   0.0243957      C  1.00
          C932   0.1915891   0.5199506   0.0344226      C  1.00
          C933   0.0070887   0.4547846   0.2265495      C  1.00
          C934   0.1545162   0.4550547   0.2207175      C  1.00
          C935   0.0406124   0.5219719   0.2262631      C  1.00
          C936   0.1150154   0.5217453   0.2257602      C  1.00
          C937   0.0091339   0.4592707   0.3958892      C  1.00
          C938   0.0855455   0.4579731   0.3960119      C  1.00
          C939   0.1200361   0.5194909   0.3957790      C  1.00
          C940   0.1930497   0.5132145   0.3988011      C  1.00
          C941   0.0136081   0.4571428   0.5840209      C  1.00
          C942   0.1536031   0.4570543   0.5824971      C  1.00
          C943   0.0461824   0.5209705   0.5851074      C  1.00
          C944   0.1168780   0.5234219   0.5891616      C  1.00
          C945   0.0027777   0.4537536   0.7712718      C  1.00
          C946   0.0759128   0.4542404   0.7680973      C  1.00
          C947   0.1174244   0.5194594   0.7755644      C  1.00
          C948   0.1910519   0.5204736   0.7761636      C  1.00
          C949   0.0071938   0.4613864   0.9476415      C  1.00
          C950   0.1556395   0.4578606   0.9615722      C  1.00
          C951   0.0464808   0.5206458   0.9618099      C  1.00
          C952   0.1184731   0.5204252   0.9655352      C  1.00
          C961   0.0095639   0.5802933   0.0215400      C  1.00
          C962   0.0827111   0.5804221   0.0232850      C  1.00
          C963   0.1226717   0.6436142   0.0293909      C  1.00
          C964   0.1939854   0.6426675   0.0317570      C  1.00
          C965   0.0082735   0.5841336   0.2140271      C  1.00
          C966   0.1605650   0.5782043   0.2205812      C  1.00
          C967   0.0489176   0.6452523   0.2018788      C  1.00
          C968   0.1243761   0.6416475   0.2075821      C  1.00
          C969   0.0137186   0.5891967   0.3921165      C  1.00
          C970   0.0870659   0.5825466   0.3940654      C  1.00
          C971   0.1268918   0.6481040   0.4010697      C  1.00
          C972   0.1955229   0.6438657   0.4083863      C  1.00
          C973   0.0089322   0.5827217   0.5749376      C  1.00
          C974   0.1521830   0.5850474   0.5912396      C  1.00
          C975   0.0465861   0.6451823   0.5822428      C  1.00
          C976   0.1201731   0.6485478   0.5875649      C  1.00
          C977   0.0070696   0.5812741   0.7819405      C  1.00
          C978   0.0797471   0.5830013   0.7788467      C  1.00
          C979   0.1161085   0.6459722   0.7691883      C  1.00
          C980   0.1903213   0.6468625   0.7684900      C  1.00
          C981   0.0109978   0.5876354   0.9587488      C  1.00
          C982   0.1593793   0.5860837   0.9649873      C  1.00
          C983   0.0501318   0.6475609   0.9613785      C  1.00
          C984   0.1208946   0.6480749   0.9598782      C  1.00
          C993   0.0122810   0.7082312   0.0245874      C  1.00
          C994   0.0850607   0.7095790   0.0283495      C  1.00
          C995   0.1252022   0.7731575   0.0413622      C  1.00
          C996   0.1974349   0.7689808   0.0427520      C  1.00
          C997   0.0080010   0.7048172   0.2101140      C  1.00
          C998   0.1599824   0.7061788   0.2104820      C  1.00
          C999   0.0446123   0.7687723   0.2184596      C  1.00
          C1000   0.1197169   0.7686509   0.2073872      C  1.00
          C1001   0.0117104   0.7142455   0.4060207      C  1.00
          C1002   0.0837553   0.7087667   0.4001759      C  1.00
          C1003   0.1212606   0.7743043   0.4004251      C  1.00
          C1004   0.1939545   0.7724755   0.4037233      C  1.00
          C1005   0.0053635   0.7090604   0.5779877      C  1.00
          C1006   0.1503178   0.7116054   0.5798915      C  1.00
          C1007   0.0441108   0.7715462   0.5775408      C  1.00
          C1008   0.1144783   0.7725911   0.5820424      C  1.00
          C1009   0.0074704   0.7078101   0.7687782      C  1.00
          C1010   0.0809921   0.7085051   0.7714844      C  1.00
          C1011   0.1171912   0.7705479   0.7777597      C  1.00
          C1012   0.1866701   0.7717708   0.7777381      C  1.00
          C1013   0.0134250   0.7117919   0.9515010      C  1.00
          C1014   0.1607915   0.7097050   0.9602916      C  1.00
          C1015   0.0500365   0.7721006   0.9444445      C  1.00
          C1016   0.1229835   0.7716780   0.9474824      C  1.00
          C1025   0.0092953   0.8345818   0.0341906      C  1.00
          C1026   0.0858148   0.8374518   0.0349531      C  1.00
          C1027   0.1208083   0.9019866   0.0363535      C  1.00
          C1028   0.1915394   0.8995650   0.0402492      C  1.00
          C1029   0.0102870   0.8331528   0.2164481      C  1.00
          C1030   0.1567709   0.8354227   0.2038087      C  1.00
          C1031   0.0469819   0.8952106   0.2177248      C  1.00
          C1032   0.1198960   0.8960725   0.2079481      C  1.00
          C1033   0.0071850   0.8383467   0.4063815      C  1.00
          C1034   0.0795735   0.8378067   0.4070230      C  1.00
          C1035   0.1188749   0.9038741   0.4127716      C  1.00
          C1036   0.1931734   0.8988456   0.4045347      C  1.00
          C1037   0.0088450   0.8366171   0.5797260      C  1.00
          C1038   0.1477984   0.8343507   0.5881440      C  1.00
          C1039   0.0431554   0.9005156   0.5884477      C  1.00
          C1040   0.1188299   0.8972289   0.5911730      C  1.00
          C1041   0.0067591   0.8326162   0.7735244      C  1.00
          C1042   0.0802968   0.8343705   0.7729297      C  1.00
          C1043   0.1153529   0.8983497   0.7673438      C  1.00
          C1044   0.1886876   0.8968379   0.7724355      C  1.00
          C1045   0.0136232   0.8344314   0.9501902      C  1.00
          C1046   0.1588613   0.8359372   0.9434837      C  1.00
          C1047   0.0512476   0.9035014   0.9468178      C  1.00
          C1048   0.1227563   0.9015505   0.9396026      C  1.00
          C1057   0.0101368   0.9578060   0.0409445      C  1.00
          C1058   0.0826381   0.9576757   0.0467044      C  1.00
          C1061   0.0091752   0.9612697   0.2223378      C  1.00
          C1062   0.1582395   0.9627536   0.2066464      C  1.00
          C1065   0.0057236   0.9667977   0.4057835      C  1.00
          C1066   0.0791640   0.9666662   0.4118866      C  1.00
          C1069   0.0055931   0.9630666   0.5810558      C  1.00
          C1070   0.1552538   0.9679146   0.5855812      C  1.00
          C1073   0.0073518   0.9586375   0.7764332      C  1.00
          C1074   0.0800803   0.9604577   0.7746436      C  1.00
          C1077   0.0121429   0.9659256   0.9460073      C  1.00
          C1078   0.1608488   0.9690999   0.9319478      C  1.00
          C1187   0.3462279   0.0062814   0.0549998      C  1.00
          C1188   0.4170975   0.0078179   0.0462977      C  1.00
          C1191   0.2716600   0.0136610   0.2278230      C  1.00
          C1192   0.3436666   0.0094429   0.2288688      C  1.00
          C1195   0.3403881   0.0164432   0.3909289      C  1.00
          C1196   0.4155190   0.0133798   0.3832596      C  1.00
          C1199   0.2642537   0.0132371   0.5712309      C  1.00
          C1200   0.3383795   0.0084959   0.5727462      C  1.00
          C1203   0.3400147   0.0049308   0.7552602      C  1.00
          C1204   0.4106614   0.0089432   0.7559263      C  1.00
          C1207   0.2587734   0.0109783   0.9281244      C  1.00
          C1208   0.3320954   0.0087438   0.9345996      C  1.00
          C1217   0.2344088   0.0720674   0.0367685      C  1.00
          C1218   0.3073328   0.0734282   0.0447595      C  1.00
          C1219   0.3477557   0.1341511   0.0388578      C  1.00
          C1220   0.4184064   0.1345664   0.0344844      C  1.00
          C1221   0.2336640   0.0739834   0.2249428      C  1.00
          C1222   0.3816970   0.0766562   0.2276922      C  1.00
          C1223   0.2668605   0.1368529   0.2256021      C  1.00
          C1224   0.3431464   0.1368693   0.2242768      C  1.00
          C1225   0.2290293   0.0729038   0.4002346      C  1.00
          C1226   0.3006776   0.0779331   0.3965266      C  1.00
          C1227   0.3385087   0.1377909   0.3911176      C  1.00
          C1228   0.4176209   0.1402598   0.3916517      C  1.00
          C1229   0.2242391   0.0766530   0.5706759      C  1.00
          C1230   0.3753494   0.0728750   0.5721213      C  1.00
          C1231   0.2655847   0.1391908   0.5751322      C  1.00
          C1232   0.3380105   0.1384915   0.5665015      C  1.00
          C1233   0.2307117   0.0807791   0.7430752      C  1.00
          C1234   0.3054372   0.0723061   0.7572398      C  1.00
          C1235   0.3427632   0.1337800   0.7566649      C  1.00
          C1236   0.4136896   0.1349315   0.7613394      C  1.00
          C1237   0.2223427   0.0736560   0.9267187      C  1.00
          C1238   0.3689077   0.0702064   0.9399177      C  1.00
          C1239   0.2568782   0.1381846   0.9289472      C  1.00
          C1240   0.3333898   0.1362302   0.9454664      C  1.00
          C1249   0.2322584   0.1955884   0.0350292      C  1.00
          C1250   0.3071981   0.1948187   0.0295632      C  1.00
          C1251   0.3415558   0.2605937   0.0336677      C  1.00
          C1252   0.4164001   0.2634285   0.0323301      C  1.00
          C1253   0.2311042   0.2007919   0.2211634      C  1.00
          C1254   0.3765447   0.2043391   0.2115262      C  1.00
          C1255   0.2659104   0.2610164   0.2117993      C  1.00
          C1256   0.3398773   0.2630635   0.2133884      C  1.00
          C1257   0.2287252   0.1993442   0.3946417      C  1.00
          C1258   0.3062932   0.2064322   0.3918393      C  1.00
          Si1259   0.3426671   0.2698706   0.3848324      Si 1.00
          Si1260   0.4164384   0.2670166   0.3808545      Si 1.00
          C1261   0.2256875   0.2019307   0.5793196      C  1.00
          C1262   0.3757495   0.2042109   0.5668800      C  1.00
          C1263   0.2635621   0.2658965   0.5843168      C  1.00
          C1264   0.3361866   0.2660203   0.5700303      C  1.00
          C1265   0.2277938   0.2030323   0.7576676      C  1.00
          C1266   0.3036147   0.1994720   0.7518556      C  1.00
          C1267   0.3390092   0.2633918   0.7551313      C  1.00
          C1268   0.4092983   0.2595847   0.7531006      C  1.00
          C1269   0.2236505   0.1996909   0.9305222      C  1.00
          C1270   0.3744394   0.2007389   0.9381910      C  1.00
          C1271   0.2646795   0.2661353   0.9363079      C  1.00
          C1272   0.3389478   0.2643180   0.9395131      C  1.00
          C1281   0.2293115   0.3249579   0.0411329      C  1.00
          C1282   0.3032930   0.3210455   0.0445886      C  1.00
          C1283   0.3412777   0.3890313   0.0435257      C  1.00
          C1284   0.4138930   0.3879724   0.0355098      C  1.00
          C1285   0.2306783   0.3238322   0.2181732      C  1.00
          C1286   0.3737566   0.3243724   0.2265550      C  1.00
          C1287   0.2652998   0.3848038   0.2255620      C  1.00
          C1288   0.3390644   0.3881952   0.2339418      C  1.00
          C1289   0.2309606   0.3241692   0.3831429      C  1.00
          Si1290   0.3051042   0.3336676   0.3905039      Si 1.00
          Si1291   0.3407825   0.3929773   0.4065797      Si 1.00
          Si1292   0.4095357   0.3918927   0.3976070      Si 1.00
          C1293   0.2292517   0.3325131   0.5851716      C  1.00
          Si1294   0.3731901   0.3338291   0.5679603      Si 1.00
          Si1295   0.2633047   0.3928098   0.5821597      Si 1.00
          Si1296   0.3372124   0.3935735   0.5835359      Si 1.00
          C1297   0.2286691   0.3285631   0.7727855      C  1.00
          C1298   0.3024675   0.3239468   0.7631440      C  1.00
          C1299   0.3345556   0.3878847   0.7650321      C  1.00
          C1300   0.4069916   0.3904797   0.7578444      C  1.00
          C1301   0.2290261   0.3275268   0.9437894      C  1.00
          C1302   0.3773670   0.3319064   0.9442479      C  1.00
          C1303   0.2665416   0.3915926   0.9542213      C  1.00
          C1304   0.3396122   0.3933628   0.9537246      C  1.00
          C1313   0.2319729   0.4544908   0.0396063      C  1.00
          C1314   0.3037543   0.4540693   0.0383317      C  1.00
          C1315   0.3390269   0.5176268   0.0350694      C  1.00
          C1316   0.4161952   0.5181272   0.0253599      C  1.00
          C1317   0.2310654   0.4540949   0.2245730      C  1.00
          C1318   0.3747152   0.4529948   0.2300374      C  1.00
          C1319   0.2673469   0.5194348   0.2240543      C  1.00
          C1320   0.3379566   0.5208282   0.2273997      C  1.00
          C1321   0.2318592   0.4512979   0.3994943      C  1.00
          Si1322   0.3051044   0.4527051   0.4115092      Si 1.00
          Si1323   0.3404170   0.5168671   0.4063800      Si 1.00
          Si1324   0.4131624   0.5189288   0.4023020      Si 1.00
          Si1325   0.2285234   0.4589946   0.5812003      Si 1.00
          Si1326   0.3739372   0.4577887   0.5939898      Si 1.00
          Si1327   0.2626871   0.5194790   0.5909390      Si 1.00
          Si1328   0.3360547   0.5211882   0.5969917      Si 1.00
          C1329   0.2242561   0.4547050   0.7726939      C  1.00
          C1330   0.2965422   0.4552326   0.7697427      C  1.00
          C1331   0.3359468   0.5148682   0.7754252      C  1.00
          C1332   0.4085135   0.5148136   0.7750427      C  1.00
          C1333   0.2304275   0.4577589   0.9635309      C  1.00
          C1334   0.3803787   0.4584801   0.9616056      C  1.00
          C1335   0.2718794   0.5182213   0.9679197      C  1.00
          C1336   0.3452168   0.5167384   0.9640746      C  1.00
          C1345   0.2302725   0.5814699   0.0394341      C  1.00
          C1346   0.3045418   0.5856735   0.0432601      C  1.00
          C1347   0.3426406   0.6485921   0.0451685      C  1.00
          C1348   0.4145410   0.6452228   0.0370829      C  1.00
          C1349   0.2346936   0.5828184   0.2162241      C  1.00
          C1350   0.3771404   0.5814577   0.2309435      C  1.00
          C1351   0.2702494   0.6446372   0.2169963      C  1.00
          C1352   0.3429624   0.6437376   0.2256430      C  1.00
          C1353   0.2300235   0.5758426   0.4043620      C  1.00
          Si1354   0.3080555   0.5808444   0.4096430      Si 1.00
          Si1355   0.3424627   0.6424887   0.4127342      Si 1.00
          Si1356   0.4168524   0.6447994   0.4123132      Si 1.00
          C1357   0.2242011   0.5831485   0.6032471      C  1.00
          Si1358   0.3757218   0.5848907   0.5971831      Si 1.00
          C1359   0.2665224   0.6467492   0.5991162      C  1.00
          C1360   0.3421955   0.6507793   0.5959661      C  1.00
          C1361   0.2307953   0.5825169   0.7771530      C  1.00
          C1362   0.3027037   0.5773999   0.7749242      C  1.00
          C1363   0.3390495   0.6399082   0.7801311      C  1.00
          C1364   0.4117346   0.6374214   0.7716011      C  1.00
          C1365   0.2331965   0.5802175   0.9683935      C  1.00
          C1366   0.3792280   0.5807572   0.9566019      C  1.00
          C1367   0.2689341   0.6459878   0.9618129      C  1.00
          C1368   0.3407352   0.6427555   0.9502115      C  1.00
          C1377   0.2328265   0.7062527   0.0390000      C  1.00
          C1378   0.3043695   0.7100040   0.0452523      C  1.00
          C1379   0.3410044   0.7753966   0.0487412      C  1.00
          C1380   0.4148651   0.7724033   0.0452327      C  1.00
          C1381   0.2290283   0.7112290   0.2151719      C  1.00
          C1382   0.3789836   0.7085419   0.2338408      C  1.00
          C1383   0.2665249   0.7748991   0.2189078      C  1.00
          C1384   0.3419830   0.7714608   0.2223542      C  1.00
          C1385   0.2321865   0.7079960   0.4068458      C  1.00
          C1386   0.3085445   0.7079365   0.4101855      C  1.00
          C1387   0.3418624   0.7684664   0.4051425      C  1.00
          C1388   0.4148347   0.7713233   0.3996767      C  1.00
          C1389   0.2251938   0.7125352   0.5910413      C  1.00
          C1390   0.3759702   0.7124268   0.5937552      C  1.00
          C1391   0.2652430   0.7760198   0.5944875      C  1.00
          C1392   0.3432247   0.7756513   0.5973580      C  1.00
          C1393   0.2248053   0.7098060   0.7768989      C  1.00
          C1394   0.3030522   0.7036018   0.7726272      C  1.00
          C1395   0.3370475   0.7673012   0.7641980      C  1.00
          C1396   0.4097224   0.7699797   0.7597007      C  1.00
          C1397   0.2353760   0.7109213   0.9663211      C  1.00
          C1398   0.3782535   0.7057427   0.9492970      C  1.00
          C1399   0.2711270   0.7761189   0.9553342      C  1.00
          C1400   0.3433237   0.7747365   0.9451278      C  1.00
          C1409   0.2301898   0.8369406   0.0426626      C  1.00
          C1410   0.3025383   0.8369461   0.0392252      C  1.00
          C1411   0.3389777   0.9012173   0.0343792      C  1.00
          C1412   0.4112154   0.8975206   0.0391150      C  1.00
          C1413   0.2291952   0.8349461   0.2111586      C  1.00
          C1414   0.3781416   0.8367616   0.2203272      C  1.00
          C1415   0.2699834   0.8998801   0.2118682      C  1.00
          C1416   0.3404403   0.8994899   0.2176846      C  1.00
          C1417   0.2296371   0.8349708   0.3979848      C  1.00
          C1418   0.3036668   0.8299292   0.3980204      C  1.00
          C1419   0.3350871   0.8958638   0.3945239      C  1.00
          C1420   0.4094675   0.9001110   0.3950965      C  1.00
          C1421   0.2212373   0.8381778   0.5860064      C  1.00
          C1422   0.3799151   0.8379125   0.5865773      C  1.00
          C1423   0.2647471   0.9023555   0.5887490      C  1.00
          C1424   0.3383499   0.8988219   0.5792247      C  1.00
          C1425   0.2260884   0.8319407   0.7749003      C  1.00
          C1426   0.2976950   0.8309520   0.7712823      C  1.00
          C1427   0.3344061   0.8974515   0.7681161      C  1.00
          C1428   0.4096807   0.8965538   0.7604381      C  1.00
          C1429   0.2330264   0.8379245   0.9389642      C  1.00
          C1430   0.3812855   0.8381152   0.9471988      C  1.00
          C1431   0.2728460   0.9005505   0.9302044      C  1.00
          C1432   0.3419297   0.9007254   0.9408442      C  1.00
          C1441   0.2281393   0.9612958   0.0374023      C  1.00
          C1442   0.3018087   0.9665464   0.0386896      C  1.00
          C1445   0.2304185   0.9600004   0.2126074      C  1.00
          C1446   0.3758026   0.9623078   0.2182057      C  1.00
          C1449   0.2280227   0.9617963   0.3987773      C  1.00
          C1450   0.3009935   0.9667762   0.3964530      C  1.00
          C1453   0.2271255   0.9673751   0.5895530      C  1.00
          C1454   0.3753898   0.9625166   0.5775321      C  1.00
          C1457   0.2244976   0.9614402   0.7682991      C  1.00
          C1458   0.2998780   0.9624199   0.7615353      C  1.00
          C1461   0.2359762   0.9652008   0.9297560      C  1.00
          C1462   0.3802001   0.9650545   0.9356021      C  1.00
          C1571   0.5593919   0.0146177   0.0325532      C  1.00
          C1572   0.6329849   0.0147346   0.0268585      C  1.00
          C1575   0.4908636   0.0078024   0.2087184      C  1.00
          C1576   0.5646209   0.0114936   0.2108125      C  1.00
          C1579   0.5605600   0.0116611   0.3886377      C  1.00
          C1580   0.6327872   0.0085300   0.3966663      C  1.00
          C1583   0.4850221   0.0105146   0.5629805      C  1.00
          C1584   0.5577713   0.0134502   0.5693753      C  1.00
          C1587   0.5581120   0.0062165   0.7650761      C  1.00
          C1588   0.6299708   0.0097636   0.7738301      C  1.00
          C1591   0.4810564   0.0141748   0.9326026      C  1.00
          C1592   0.5538364   0.0133039   0.9406164      C  1.00
          C1601   0.4560844   0.0706094   0.0411158      C  1.00
          C1602   0.5300434   0.0768077   0.0293856      C  1.00
          C1603   0.5661152   0.1382807   0.0271388      C  1.00
          C1604   0.6379975   0.1384285   0.0190455      C  1.00
          C1605   0.4545627   0.0746524   0.2223737      C  1.00
          C1606   0.5981647   0.0769410   0.2122074      C  1.00
          C1607   0.4921269   0.1382044   0.2201619      C  1.00
          C1608   0.5591267   0.1368514   0.2130536      C  1.00
          C1609   0.4497569   0.0732104   0.3869360      C  1.00
          C1610   0.5221622   0.0793380   0.3933559      C  1.00
          C1611   0.5578739   0.1382485   0.3928340      C  1.00
          C1612   0.6314731   0.1381171   0.4033514      C  1.00
          C1613   0.4479376   0.0744042   0.5606524      C  1.00
          C1614   0.5961056   0.0784928   0.5750288      C  1.00
          C1615   0.4862117   0.1357465   0.5679534      C  1.00
          C1616   0.5568283   0.1390126   0.5721447      C  1.00
          C1617   0.4490043   0.0709071   0.7586141      C  1.00
          C1618   0.5193299   0.0672188   0.7665126      C  1.00
          C1619   0.5537948   0.1344833   0.7662384      C  1.00
          C1620   0.6271887   0.1387085   0.7746861      C  1.00
          C1621   0.4420098   0.0756607   0.9391001      C  1.00
          C1622   0.5923469   0.0776930   0.9380629      C  1.00
          C1623   0.4858885   0.1377506   0.9411989      C  1.00
          C1624   0.5571533   0.1411789   0.9412483      C  1.00
          C1633   0.4555814   0.2003813   0.0303033      C  1.00
          C1634   0.5281229   0.2037393   0.0329938      C  1.00
          C1635   0.5654796   0.2640972   0.0416252      C  1.00
          C1636   0.6405559   0.2653103   0.0401183      C  1.00
          C1637   0.4507535   0.2014157   0.2087396      C  1.00
          C1638   0.5996125   0.2020947   0.2100914      C  1.00
          C1639   0.4880597   0.2618800   0.2099062      C  1.00
          C1640   0.5663848   0.2687926   0.2147318      C  1.00
          C1641   0.4520042   0.2018750   0.3868039      C  1.00
          C1642   0.5210520   0.2038015   0.3905354      C  1.00
          C1643   0.5532516   0.2674451   0.3937581      C  1.00
          C1644   0.6260818   0.2638070   0.4065198      C  1.00
          C1645   0.4478231   0.2008840   0.5651858      C  1.00
          C1646   0.5914397   0.1988265   0.5825565      C  1.00
          C1647   0.4816021   0.2630453   0.5695699      C  1.00
          C1648   0.5566243   0.2619985   0.5798865      C  1.00
          C1649   0.4467134   0.1976121   0.7609509      C  1.00
          C1650   0.5198412   0.1979733   0.7617272      C  1.00
          C1651   0.5561000   0.2602702   0.7615736      C  1.00
          C1652   0.6273081   0.2613226   0.7747810      C  1.00
          C1653   0.4475089   0.1972562   0.9394021      C  1.00
          C1654   0.5967796   0.2022413   0.9411098      C  1.00
          C1655   0.4878042   0.2615768   0.9458114      C  1.00
          C1656   0.5623436   0.2647640   0.9477399      C  1.00
          C1665   0.4521191   0.3270161   0.0341355      C  1.00
          C1666   0.5289194   0.3291159   0.0421341      C  1.00
          C1667   0.5601587   0.3913280   0.0407888      C  1.00
          C1668   0.6327860   0.3949000   0.0452349      C  1.00
          C1669   0.4521034   0.3261631   0.2191385      C  1.00
          C1670   0.5999331   0.3321088   0.2142850      C  1.00
          C1671   0.4852475   0.3930757   0.2209554      C  1.00
          C1672   0.5621289   0.3962572   0.2213754      C  1.00
          Si1673   0.4453476   0.3310195   0.3853051      Si 1.00
          Si1674   0.5184574   0.3313836   0.3943919      Si 1.00
          Si1675   0.5581324   0.3914017   0.4011055      Si 1.00
          Si1676   0.6285645   0.3925525   0.4079479      Si 1.00
          Si1677   0.4514189   0.3313000   0.5683894      Si 1.00
          C1678   0.5925901   0.3301206   0.5883323      C  1.00
          Si1679   0.4799868   0.3931589   0.5859694      Si 1.00
          Si1680   0.5587386   0.3923889   0.5945984      Si 1.00
          C1681   0.4448633   0.3264290   0.7512130      C  1.00
          C1682   0.5190685   0.3250706   0.7591022      C  1.00
          C1683   0.5574751   0.3897674   0.7694180      C  1.00
          C1684   0.6276238   0.3922660   0.7814736      C  1.00
          C1685   0.4540064   0.3303238   0.9444680      C  1.00
          C1686   0.6005562   0.3287843   0.9570305      C  1.00
          C1687   0.4930005   0.3907296   0.9525852      C  1.00
          C1688   0.5617800   0.3931991   0.9600463      C  1.00
          C1697   0.4508512   0.4527538   0.0348107      C  1.00
          C1698   0.5232108   0.4550339   0.0352412      C  1.00
          C1699   0.5613877   0.5160756   0.0461760      C  1.00
          C1700   0.6353568   0.5193930   0.0550090      C  1.00
          C1701   0.4457183   0.4569749   0.2278802      C  1.00
          C1702   0.6013103   0.4572754   0.2279896      C  1.00
          C1703   0.4915638   0.5201052   0.2277791      C  1.00
          C1704   0.5642579   0.5170833   0.2335539      C  1.00
          Si1705   0.4502603   0.4545337   0.3902166      Si 1.00
          Si1706   0.5204592   0.4514502   0.4032424      Si 1.00
          Si1707   0.5569651   0.5191516   0.4106068      Si 1.00
          Si1708   0.6290306   0.5141074   0.4082140      Si 1.00
          Si1709   0.4463834   0.4543470   0.5948166      Si 1.00
          Si1710   0.5910075   0.4526107   0.5947506      Si 1.00
          Si1711   0.4813338   0.5212022   0.5925613      Si 1.00
          Si1712   0.5586901   0.5162376   0.5989263      Si 1.00
          C1713   0.4450336   0.4534390   0.7731326      C  1.00
          C1714   0.5184105   0.4513514   0.7757450      C  1.00
          C1715   0.5588755   0.5170950   0.7706185      C  1.00
          C1716   0.6320963   0.5208595   0.7751491      C  1.00
          C1717   0.4548427   0.4531034   0.9609368      C  1.00
          C1718   0.5993628   0.4549492   0.9645697      C  1.00
          C1719   0.4904373   0.5171504   0.9601773      C  1.00
          C1720   0.5646048   0.5191119   0.9585677      C  1.00
          C1729   0.4541073   0.5825695   0.0316705      C  1.00
          C1730   0.5276500   0.5821099   0.0444755      C  1.00
          C1731   0.5621461   0.6425867   0.0439684      C  1.00
          C1732   0.6357750   0.6416533   0.0486012      C  1.00
          C1733   0.4514505   0.5824300   0.2289575      C  1.00
          C1734   0.5991893   0.5843766   0.2343837      C  1.00
          C1735   0.4889514   0.6458613   0.2330288      C  1.00
          C1736   0.5585521   0.6472897   0.2323668      C  1.00
          Si1737   0.4471731   0.5786157   0.4102167      Si 1.00
          Si1738   0.5211103   0.5845081   0.4120150      Si 1.00
          Si1739   0.5541298   0.6451424   0.4075360      Si 1.00
          Si1740   0.6306010   0.6457627   0.4103114      Si 1.00
          Si1741   0.4515028   0.5863747   0.5992457      Si 1.00
          Si1742   0.5959453   0.5852834   0.5943197      Si 1.00
          Si1743   0.4819105   0.6503229   0.5910931      Si 1.00
          Si1744   0.5622144   0.6453491   0.5924413      Si 1.00
          C1745   0.4490548   0.5764830   0.7755502      C  1.00
          C1746   0.5184358   0.5815883   0.7700913      C  1.00
          C1747   0.5566013   0.6447862   0.7682686      C  1.00
          C1748   0.6279354   0.6482974   0.7750211      C  1.00
          C1749   0.4556343   0.5809958   0.9601221      C  1.00
          C1750   0.6007607   0.5820854   0.9553187      C  1.00
          C1751   0.4911368   0.6435943   0.9521899      C  1.00
          C1752   0.5679790   0.6436077   0.9464576      C  1.00
          C1761   0.4505982   0.7089046   0.0395916      C  1.00
          C1762   0.5253397   0.7075809   0.0364715      C  1.00
          C1763   0.5609167   0.7707103   0.0365471      C  1.00
          C1764   0.6356373   0.7754400   0.0359229      C  1.00
          C1765   0.4508522   0.7087579   0.2353164      C  1.00
          C1766   0.5977243   0.7093443   0.2243220      C  1.00
          C1767   0.4858369   0.7735800   0.2280005      C  1.00
          C1768   0.5630518   0.7729360   0.2227581      C  1.00
          C1769   0.4516128   0.7054728   0.4114323      C  1.00
          C1770   0.5218416   0.7048226   0.4121411      C  1.00
          C1771   0.5596687   0.7695546   0.4129888      C  1.00
          C1772   0.6316216   0.7703370   0.4149830      C  1.00
          C1773   0.4468164   0.7100746   0.5899801      C  1.00
          C1774   0.5950525   0.7069220   0.5897528      C  1.00
          C1775   0.4853201   0.7727322   0.5831161      C  1.00
          C1776   0.5576068   0.7719246   0.5872132      C  1.00
          C1777   0.4494319   0.7050776   0.7634550      C  1.00
          C1778   0.5207768   0.7055294   0.7653553      C  1.00
          C1779   0.5579578   0.7707166   0.7586841      C  1.00
          C1780   0.6312140   0.7715558   0.7630863      C  1.00
          C1781   0.4517714   0.7066724   0.9529230      C  1.00
          C1782   0.6010578   0.7089444   0.9476454      C  1.00
          C1783   0.4860078   0.7744646   0.9545455      C  1.00
          C1784   0.5607773   0.7704451   0.9506595      C  1.00
          C1793   0.4510376   0.8348896   0.0451949      C  1.00
          C1794   0.5232940   0.8325663   0.0366495      C  1.00
          C1795   0.5615726   0.8963667   0.0295817      C  1.00
          C1796   0.6355738   0.8989167   0.0277496      C  1.00
          C1797   0.4535359   0.8372590   0.2139908      C  1.00
          C1798   0.6002461   0.8362904   0.2117960      C  1.00
          C1799   0.4877484   0.8993221   0.2001500      C  1.00
          C1800   0.5601633   0.8966969   0.2013781      C  1.00
          C1801   0.4484087   0.8383902   0.3965389      C  1.00
          C1802   0.5179163   0.8379050   0.4074449      C  1.00
          C1803   0.5571417   0.8942583   0.4148689      C  1.00
          C1804   0.6323730   0.8962542   0.4085549      C  1.00
          C1805   0.4485289   0.8360631   0.5851025      C  1.00
          C1806   0.5990975   0.8375135   0.5878479      C  1.00
          C1807   0.4814205   0.8983892   0.5757528      C  1.00
          C1808   0.5587473   0.8968695   0.5776929      C  1.00
          C1809   0.4457577   0.8329709   0.7582975      C  1.00
          C1810   0.5203553   0.8309688   0.7603503      C  1.00
          C1811   0.5613347   0.8981066   0.7640130      C  1.00
          C1812   0.6339651   0.8950684   0.7680253      C  1.00
          C1813   0.4525080   0.8397800   0.9481933      C  1.00
          C1814   0.5983993   0.8336460   0.9484667      C  1.00
          C1815   0.4901635   0.8976756   0.9356298      C  1.00
          C1816   0.5645435   0.8954651   0.9345481      C  1.00
          C1825   0.4516580   0.9585703   0.0370744      C  1.00
          C1826   0.5253956   0.9618596   0.0397837      C  1.00
          C1829   0.4468487   0.9626830   0.2066521      C  1.00
          C1830   0.5962164   0.9601212   0.2192293      C  1.00
          C1833   0.4505024   0.9614416   0.4010691      C  1.00
          C1834   0.5225152   0.9596681   0.4083012      C  1.00
          C1837   0.4488024   0.9614264   0.5815140      C  1.00
          C1838   0.5959262   0.9625918   0.5819731      C  1.00
          C1841   0.4494280   0.9580511   0.7553247      C  1.00
          C1842   0.5247010   0.9600334   0.7577607      C  1.00
          C1845   0.4501744   0.9606007   0.9330265      C  1.00
          C1846   0.5991491   0.9619675   0.9339136      C  1.00
          C1955   0.7809248   0.0092172   0.0245512      C  1.00
          C1956   0.8553033   0.0102021   0.0300835      C  1.00
          C1959   0.7047923   0.0128881   0.2205192      C  1.00
          C1960   0.7779559   0.0153548   0.2287723      C  1.00
          C1963   0.7770695   0.0076254   0.3953682      C  1.00
          C1964   0.8492804   0.0091582   0.4074948      C  1.00
          C1967   0.7002309   0.0070149   0.5903036      C  1.00
          C1968   0.7742673   0.0111627   0.5920339      C  1.00
          C1971   0.7778475   0.0112110   0.7672559      C  1.00
          C1972   0.8507511   0.0147607   0.7641263      C  1.00
          C1975   0.7050391   0.0111624   0.9380368      C  1.00
          C1976   0.7804646   0.0108675   0.9473766      C  1.00
          C1985   0.6730872   0.0764420   0.0131250      C  1.00
          C1986   0.7435317   0.0729460   0.0169405      C  1.00
          C1987   0.7809507   0.1329610   0.0246492      C  1.00
          C1988   0.8582535   0.1318248   0.0303670      C  1.00
          C1989   0.6726747   0.0807763   0.2120132      C  1.00
          C1990   0.8147039   0.0811305   0.2216616      C  1.00
          C1991   0.7085756   0.1419028   0.1996207      C  1.00
          C1992   0.7816951   0.1414837   0.2027337      C  1.00
          C1993   0.6681934   0.0718975   0.3983229      C  1.00
          C1994   0.7422521   0.0693898   0.3951596      C  1.00
          C1995   0.7767015   0.1352092   0.3947370      C  1.00
          C1996   0.8506187   0.1349152   0.4005525      C  1.00
          C1997   0.6649724   0.0718419   0.5863903      C  1.00
          C1998   0.8129837   0.0728112   0.5866845      C  1.00
          C1999   0.7014828   0.1357637   0.5863865      C  1.00
          C2000   0.7744140   0.1365958   0.5863060      C  1.00
          C2001   0.6659242   0.0737691   0.7720165      C  1.00
          C2002   0.7408900   0.0738681   0.7711921      C  1.00
          C2003   0.7778577   0.1399025   0.7704810      C  1.00
          C2004   0.8550387   0.1405183   0.7713741      C  1.00
          C2005   0.6636222   0.0743337   0.9347069      C  1.00
          C2006   0.8130232   0.0737156   0.9514385      C  1.00
          C2007   0.7037805   0.1366135   0.9380603      C  1.00
          C2008   0.7773088   0.1354361   0.9460112      C  1.00
          C2017   0.6764225   0.1993234   0.0373598      C  1.00
          C2018   0.7479064   0.1983821   0.0402014      C  1.00
          C2019   0.7828394   0.2635638   0.0362339      C  1.00
          C2020   0.8575183   0.2622248   0.0356315      C  1.00
          C2021   0.6700894   0.2069927   0.2073147      C  1.00
          C2022   0.8204579   0.2042157   0.2116779      C  1.00
          C2023   0.7087766   0.2686036   0.2140452      C  1.00
          C2024   0.7812411   0.2675739   0.2191741      C  1.00
          C2025   0.6642805   0.2009056   0.4045526      C  1.00
          C2026   0.7403101   0.1998459   0.4017305      C  1.00
          C2027   0.7763322   0.2651756   0.3959421      C  1.00
          C2028   0.8493613   0.2622548   0.3919553      C  1.00
          C2029   0.6615377   0.1997796   0.5908330      C  1.00
          C2030   0.8151114   0.2010921   0.5881459      C  1.00
          C2031   0.6987590   0.2663309   0.5903363      C  1.00
          C2032   0.7714393   0.2637391   0.5890745      C  1.00
          C2033   0.6668188   0.1990638   0.7740138      C  1.00
          C2034   0.7417303   0.1982573   0.7690732      C  1.00
          C2035   0.7759994   0.2653472   0.7818647      C  1.00
          C2036   0.8495459   0.2632423   0.7833811      C  1.00
          C2037   0.6705691   0.2029055   0.9457475      C  1.00
          C2038   0.8182778   0.1982728   0.9570010      C  1.00
          C2039   0.7086001   0.2657936   0.9614608      C  1.00
          C2040   0.7821090   0.2638914   0.9645622      C  1.00
          C2049   0.6753409   0.3334519   0.0390937      C  1.00
          C2050   0.7477808   0.3293687   0.0300403      C  1.00
          C2051   0.7855456   0.3931740   0.0325628      C  1.00
          C2052   0.8582298   0.3888750   0.0390654      C  1.00
          C2053   0.6733558   0.3322984   0.2076298      C  1.00
          C2054   0.8177045   0.3308016   0.2236142      C  1.00
          C2055   0.7133028   0.3988670   0.2115861      C  1.00
          C2056   0.7831265   0.3942461   0.2233829      C  1.00
          C2057   0.6654023   0.3281632   0.4130575      C  1.00
          C2058   0.7403402   0.3283433   0.4030415      C  1.00
          C2059   0.7764664   0.3935152   0.4110249      C  1.00
          C2060   0.8537352   0.3948672   0.4093860      C  1.00
          C2061   0.6669163   0.3288198   0.5788732      C  1.00
          C2062   0.8123783   0.3262562   0.5907150      C  1.00
          C2063   0.7037139   0.3913500   0.5860520      C  1.00
          C2064   0.7759476   0.3927348   0.5867877      C  1.00
          C2065   0.6636528   0.3254629   0.7863864      C  1.00
          C2066   0.7361479   0.3285530   0.7895911      C  1.00
          C2067   0.7772893   0.3896855   0.7852978      C  1.00
          C2068   0.8506568   0.3899833   0.7793860      C  1.00
          C2069   0.6728788   0.3292517   0.9589629      C  1.00
          C2070   0.8195134   0.3281824   0.9665796      C  1.00
          C2071   0.7079652   0.3952495   0.9632764      C  1.00
          C2072   0.7821066   0.3938195   0.9677820      C  1.00
          C2081   0.6712810   0.4564113   0.0527334      C  1.00
          C2082   0.7469590   0.4550784   0.0458765      C  1.00
          C2083   0.7855169   0.5201788   0.0450441      C  1.00
          C2084   0.8577552   0.5150661   0.0510655      C  1.00
          C2085   0.6766631   0.4594064   0.2232140      C  1.00
          C2086   0.8224443   0.4569923   0.2257660      C  1.00
          C2087   0.7126109   0.5204268   0.2229678      C  1.00
          C2088   0.7852608   0.5190315   0.2244777      C  1.00
          Si2089   0.6639779   0.4557407   0.4084959      Si 1.00
          C2090   0.7412410   0.4543713   0.4096700      C  1.00
          C2091   0.7813203   0.5202748   0.4105540      C  1.00
          C2092   0.8481267   0.5193392   0.4176623      C  1.00
          C2093   0.6686739   0.4562725   0.5860266      C  1.00
          C2094   0.8124732   0.4561815   0.5884496      C  1.00
          C2095   0.7054046   0.5175510   0.5814477      C  1.00
          C2096   0.7801450   0.5210396   0.5867697      C  1.00
          C2097   0.6707550   0.4596661   0.7810275      C  1.00
          C2098   0.7436207   0.4585624   0.7793614      C  1.00
          C2099   0.7848941   0.5199845   0.7796234      C  1.00
          C2100   0.8573955   0.5176058   0.7768813      C  1.00
          C2101   0.6727845   0.4615025   0.9680451      C  1.00
          C2102   0.8212594   0.4567060   0.9724106      C  1.00
          C2103   0.7143738   0.5212865   0.9655453      C  1.00
          C2104   0.7852879   0.5198253   0.9657806      C  1.00
          C2113   0.6758962   0.5805675   0.0537923      C  1.00
          C2114   0.7470121   0.5826366   0.0432467      C  1.00
          C2115   0.7821465   0.6433901   0.0454198      C  1.00
          C2116   0.8577970   0.6442195   0.0509037      C  1.00
          C2117   0.6737518   0.5834758   0.2308287      C  1.00
          C2118   0.8211500   0.5816641   0.2309095      C  1.00
          C2119   0.7109554   0.6471370   0.2265641      C  1.00
          C2120   0.7835328   0.6446017   0.2302076      C  1.00
          Si2121   0.6675849   0.5830067   0.4070327      Si 1.00
          C2122   0.7405077   0.5844420   0.4124511      C  1.00
          C2123   0.7745461   0.6463838   0.4238485      C  1.00
          C2124   0.8539720   0.6439240   0.4250281      C  1.00
          C2125   0.6723593   0.5812528   0.5827173      C  1.00
          C2126   0.8133352   0.5804509   0.5923996      C  1.00
          C2127   0.7053859   0.6378090   0.5885079      C  1.00
          C2128   0.7774263   0.6420460   0.5970978      C  1.00
          C2129   0.6676621   0.5839330   0.7783540      C  1.00
          C2130   0.7460701   0.5857587   0.7843115      C  1.00
          C2131   0.7803007   0.6474812   0.7870825      C  1.00
          C2132   0.8549826   0.6490436   0.7868750      C  1.00
          C2133   0.6753698   0.5831760   0.9596830      C  1.00
          C2134   0.8211919   0.5824035   0.9594034      C  1.00
          C2135   0.7115518   0.6463875   0.9583954      C  1.00
          C2136   0.7816190   0.6447415   0.9680430      C  1.00
          C2145   0.6729275   0.7093323   0.0404567      C  1.00
          C2146   0.7448109   0.7092850   0.0400635      C  1.00
          C2147   0.7793033   0.7709156   0.0450391      C  1.00
          C2148   0.8558495   0.7727109   0.0478850      C  1.00
          C2149   0.6689718   0.7139108   0.2291077      C  1.00
          C2150   0.8166195   0.7077125   0.2317930      C  1.00
          C2151   0.7086165   0.7736998   0.2290138      C  1.00
          C2152   0.7827451   0.7719866   0.2354152      C  1.00
          C2153   0.6669717   0.7056322   0.4172902      C  1.00
          C2154   0.7474721   0.7088588   0.4190737      C  1.00
          C2155   0.7810981   0.7683920   0.4221932      C  1.00
          C2156   0.8556593   0.7715726   0.4212642      C  1.00
          C2157   0.6700446   0.7068855   0.5886701      C  1.00
          C2158   0.8136368   0.7053403   0.6062538      C  1.00
          C2159   0.7018232   0.7693461   0.5997990      C  1.00
          C2160   0.7762886   0.7683688   0.6017294      C  1.00
          C2161   0.6631541   0.7062579   0.7720681      C  1.00
          C2162   0.7394921   0.7047161   0.7774362      C  1.00
          C2163   0.7798930   0.7710452   0.7794662      C  1.00
          C2164   0.8518505   0.7726988   0.7766952      C  1.00
          C2165   0.6740949   0.7086196   0.9534440      C  1.00
          C2166   0.8191464   0.7107824   0.9660238      C  1.00
          C2167   0.7092181   0.7752217   0.9514025      C  1.00
          C2168   0.7843302   0.7753595   0.9575046      C  1.00
          C2177   0.6694240   0.8384380   0.0301822      C  1.00
          C2178   0.7427045   0.8318437   0.0387120      C  1.00
          C2179   0.7839112   0.8979115   0.0393519      C  1.00
          C2180   0.8547235   0.8963039   0.0484759      C  1.00
          C2181   0.6719926   0.8338945   0.2202474      C  1.00
          C2182   0.8171599   0.8348486   0.2177164      C  1.00
          C2183   0.7090076   0.9007954   0.2141264      C  1.00
          C2184   0.7828326   0.8991068   0.2113441      C  1.00
          C2185   0.6693066   0.8360771   0.4154792      C  1.00
          C2186   0.7397981   0.8322208   0.4099322      C  1.00
          C2187   0.7801650   0.8980498   0.4005935      C  1.00
          C2188   0.8541022   0.8966643   0.4101887      C  1.00
          C2189   0.6693860   0.8298026   0.5932768      C  1.00
          C2190   0.8122921   0.8356226   0.5959679      C  1.00
          C2191   0.7040225   0.8982594   0.5939628      C  1.00
          C2192   0.7779611   0.9017968   0.5973609      C  1.00
          C2193   0.6706801   0.8350321   0.7723420      C  1.00
          C2194   0.7455698   0.8327828   0.7769950      C  1.00
          C2195   0.7767948   0.9006692   0.7760335      C  1.00
          C2196   0.8502733   0.9000058   0.7686956      C  1.00
          C2197   0.6694568   0.8346397   0.9573905      C  1.00
          C2198   0.8226074   0.8381974   0.9528543      C  1.00
          C2199   0.7083681   0.8986049   0.9527022      C  1.00
          C2200   0.7829167   0.8957985   0.9573871      C  1.00
          C2209   0.6729272   0.9629809   0.0388148      C  1.00
          C2210   0.7458813   0.9609120   0.0363457      C  1.00
          C2213   0.6702601   0.9619978   0.2137382      C  1.00
          C2214   0.8177957   0.9612886   0.2224825      C  1.00
          C2217   0.6735916   0.9583385   0.3974407      C  1.00
          C2218   0.7446902   0.9617090   0.3984786      C  1.00
          C2221   0.6675127   0.9600944   0.5933354      C  1.00
          C2222   0.8175902   0.9637728   0.6026759      C  1.00
          C2225   0.6695578   0.9570996   0.7748262      C  1.00
          C2226   0.7433850   0.9607430   0.7795842      C  1.00
          C2229   0.6713338   0.9609830   0.9461813      C  1.00
          C2230   0.8209857   0.9618990   0.9627500      C  1.00
          C2343   0.9226311   0.0137606   0.2457538      C  1.00
          C2344   0.9988030   0.0138140   0.2361931      C  1.00
          C2351   0.9245680   0.0129800   0.5842387      C  1.00
          C2352   0.9978697   0.0142175   0.5919025      C  1.00
          C2355   0.9949326   0.0067142   0.7676178      C  1.00
          C2359   0.9235592   0.0090327   0.9446165      C  1.00
          C2360   0.9972258   0.0085699   0.9456214      C  1.00
          C2369   0.8948624   0.0711691   0.0318175      C  1.00
          C2370   0.9672432   0.0735688   0.0385535      C  1.00
          C2373   0.8897325   0.0818013   0.2323885      C  1.00
          C2375   0.9263950   0.1403504   0.2232431      C  1.00
          C2376   0.9998298   0.1366671   0.2197664      C  1.00
          C2377   0.8866048   0.0750063   0.4127217      C  1.00
          C2378   0.9596626   0.0731181   0.4203818      C  1.00
          C2379   0.9974144   0.1337548   0.4087829      C  1.00
          C2381   0.8892930   0.0725258   0.5899268      C  1.00
          C2383   0.9236329   0.1403079   0.5969088      C  1.00
          C2385   0.8867477   0.0747880   0.7658336      C  1.00
          C2386   0.9631565   0.0696275   0.7672140      C  1.00
          C2389   0.8871788   0.0721337   0.9497197      C  1.00
          C2391   0.9253471   0.1390000   0.9594112      C  1.00
          C2392   0.9977968   0.1390141   0.9506559      C  1.00
          C2401   0.8941098   0.1985828   0.0347858      C  1.00
          C2402   0.9656626   0.1980316   0.0535622      C  1.00
          C2405   0.8929308   0.2042960   0.2151582      C  1.00
          C2407   0.9307105   0.2637791   0.2290509      C  1.00
          C2409   0.8845144   0.1977064   0.4008504      C  1.00
          C2410   0.9588720   0.2033401   0.4026656      C  1.00
          C2411   0.9975347   0.2642321   0.3952489      C  1.00
          C2413   0.8885509   0.2019029   0.5929270      C  1.00
          C2415   0.9225607   0.2681614   0.5969561      C  1.00
          C2416   0.9980191   0.2664562   0.5925112      C  1.00
          C2417   0.8909204   0.2043632   0.7801411      C  1.00
          C2418   0.9670347   0.2009940   0.7719076      C  1.00
          C2419   0.9997079   0.2645594   0.7748257      C  1.00
          C2421   0.8919606   0.2008581   0.9580329      C  1.00
          C2423   0.9299807   0.2620191   0.9587116      C  1.00
          C2433   0.8948326   0.3263330   0.0411297      C  1.00
          C2434   0.9686012   0.3264282   0.0485806      C  1.00
          C2437   0.8926532   0.3276543   0.2208404      C  1.00
          C2439   0.9333086   0.3937579   0.2187039      C  1.00
          C2441   0.8825290   0.3258977   0.4011550      C  1.00
          C2442   0.9588415   0.3283136   0.4008904      C  1.00
          C2443   0.9913355   0.3931313   0.4095559      C  1.00
          C2445   0.8854514   0.3313819   0.5975830      C  1.00
          C2447   0.9271330   0.3935430   0.5873696      C  1.00
          C2448   0.9973280   0.3963433   0.5868777      C  1.00
          C2449   0.8873740   0.3252059   0.7841531      C  1.00
          C2450   0.9590635   0.3245112   0.7768020      C  1.00
          C2451   0.9934451   0.3884979   0.7740057      C  1.00
          C2453   0.8926756   0.3282575   0.9643188      C  1.00
          C2455   0.9266150   0.3943030   0.9564853      C  1.00
          C2465   0.8987340   0.4489044   0.0454586      C  1.00
          C2466   0.9709131   0.4503450   0.0462977      C  1.00
          C2469   0.8943549   0.4590695   0.2224964      C  1.00
          C2471   0.9301396   0.5219064   0.2224373      C  1.00
          C2473   0.8867282   0.4549437   0.4110881      C  1.00
          C2474   0.9613409   0.4585548   0.4225677      C  1.00
          C2477   0.8861283   0.4529835   0.5844471      C  1.00
          C2479   0.9246858   0.5192254   0.5844614      C  1.00
          C2480   0.9959359   0.5168667   0.5914245      C  1.00
          C2481   0.8878362   0.4548175   0.7714435      C  1.00
          C2482   0.9611694   0.4534043   0.7679910      C  1.00
          C2485   0.8910879   0.4565732   0.9624860      C  1.00
          C2487   0.9289795   0.5180693   0.9557259      C  1.00
          C2497   0.8930792   0.5794109   0.0552920      C  1.00
          C2498   0.9666075   0.5797395   0.0564433      C  1.00
          C2501   0.8936528   0.5819841   0.2347364      C  1.00
          C2503   0.9294479   0.6425087   0.2382034      C  1.00
          C2505   0.8941541   0.5806872   0.4208459      C  1.00
          C2506   0.9629778   0.5835868   0.4192275      C  1.00
          C2507   0.9984542   0.6423694   0.4228009      C  1.00
          C2509   0.8916310   0.5799911   0.5930917      C  1.00
          C2511   0.9266964   0.6456576   0.6059369      C  1.00
          C2512   0.9962366   0.6452424   0.6005500      C  1.00
          C2513   0.8914406   0.5821632   0.7826023      C  1.00
          C2514   0.9621325   0.5859353   0.7827176      C  1.00
          C2515   0.9961711   0.6491425   0.7857426      C  1.00
          C2517   0.8929292   0.5794488   0.9699437      C  1.00
          C2519   0.9316130   0.6426926   0.9645323      C  1.00
          C2529   0.8931658   0.7119662   0.0536491      C  1.00
          C2530   0.9690040   0.7115548   0.0597422      C  1.00
          C2533   0.8945631   0.7091908   0.2297270      C  1.00
          C2535   0.9300938   0.7730872   0.2274572      C  1.00
          C2537   0.8889782   0.7073210   0.4272001      C  1.00
          C2538   0.9640947   0.7048280   0.4255169      C  1.00
          C2539   0.9990309   0.7679391   0.4225101      C  1.00
          C2541   0.8894677   0.7051925   0.6075001      C  1.00
          C2543   0.9242428   0.7728985   0.5992494      C  1.00
          C2544   0.9969689   0.7705721   0.6030102      C  1.00
          C2545   0.8917643   0.7149778   0.7794762      C  1.00
          C2546   0.9665713   0.7157077   0.7833453      C  1.00
          C2549   0.8942925   0.7105670   0.9661740      C  1.00
          C2551   0.9272006   0.7767734   0.9625466      C  1.00
          C2561   0.8927726   0.8330822   0.0573714      C  1.00
          C2562   0.9678187   0.8311805   0.0618366      C  1.00
          C2565   0.8941473   0.8403853   0.2223025      C  1.00
          C2567   0.9307483   0.9020667   0.2299439      C  1.00
          C2569   0.8923906   0.8346033   0.4197110      C  1.00
          C2570   0.9656194   0.8315345   0.4162603      C  1.00
          C2571   0.9994368   0.8954619   0.4102679      C  1.00
          C2573   0.8869205   0.8363865   0.5962740      C  1.00
          C2575   0.9241945   0.8968872   0.5870290      C  1.00
          C2576   0.9967827   0.8949815   0.5831535      C  1.00
          C2577   0.8858011   0.8369295   0.7671974      C  1.00
          C2578   0.9616014   0.8369690   0.7725436      C  1.00
          C2579   0.9951505   0.9018033   0.7669843      C  1.00
          C2581   0.8932475   0.8392432   0.9568808      C  1.00
          C2583   0.9288547   0.8994190   0.9678793      C  1.00
          C2593   0.8899560   0.9619694   0.0508667      C  1.00
          C2594   0.9643240   0.9593333   0.0566854      C  1.00
          C2597   0.8909340   0.9612189   0.2252375      C  1.00
          C2601   0.8917269   0.9623896   0.4036632      C  1.00
          C2602   0.9654559   0.9600247   0.4043438      C  1.00
          C2605   0.8894908   0.9630418   0.5937991      C  1.00
          C2609   0.8850126   0.9663330   0.7692532      C  1.00
          C2610   0.9590150   0.9661242   0.7677586      C  1.00
          C2613   0.8909886   0.9625442   0.9689901      C  1.00
          Li3073   0.4808057   0.4801015   0.5009146      Li 1.00
